<?xml version="1.0" encoding="ISO-8859-1"?>
<febio_spec version="2.5">
  <Module type="multiphasic"/>
    <Control>
      <symmetric_stiffness>0</symmetric_stiffness>
      <time_steps>20</time_steps>
      <step_size>0.5</step_size>
      <time_stepper>
	<dtmin>1e-4</dtmin>
	<dtmax>1</dtmax>
	<max_retries>10</max_retries>
	<opt_iter>10</opt_iter>
      </time_stepper>
      <max_refs>15</max_refs>
      <max_ups>0</max_ups>
      <dtol>0.01</dtol>
      <ptol>0.1</ptol>
      <etol>0.1</etol>
      <lstol>0.9</lstol>
      <min_residual>1e-020</min_residual>
      <analysis type="static"/>
    </Control>
  <Globals>
    <Constants>
      <T>298</T>
      <R>8.314e-15</R>
      <Fc>96485e-15</Fc> 
      <seed>0</seed>
      <min_scale_factor>0.01</min_scale_factor>
      <bounds_tolerance>1e-1</bounds_tolerance>
      <growth_substeps>3</growth_substeps>
      <min_angio_dt>0.1</min_angio_dt>      
      <max_angio_dt>0.5</max_angio_dt>
      <bounce>1</bounce>
    </Constants>
  </Globals>
    <Material>
    <material id="1" name="MaterialCore" type="multiphasic">
      <phi0>0.00567</phi0>
      <permeability type="perm-const-iso">
	<perm>3.588e4</perm>
      </permeability>
      <osmotic_coefficient type="osm-coef-const">
	<osmcoef>1</osmcoef>
      </osmotic_coefficient>
      <fixed_charge_density>0</fixed_charge_density>

      <solid type="angio_mat">
	<mix_method type="LinRot"/>
	<angio_stress_policy type="sigmoid_dens_angio_stress_policy">
	  <fan_exponential>2</fan_exponential>
	</angio_stress_policy>
	
	<im_manager type="im_manager">
	  <initial_modifier type="efd_initializer">
	    <spd>1.2991,1,0.4,0,0,0</spd>
	  </initial_modifier>
	  <initial_modifier type="density_initializer">
	    <initial_density>3.0</initial_density>
	  </initial_modifier>
	</im_manager>
	
	<velocity_manager type="segment_growth_velocity_manager">
	  <velocity_modifier type="segment_velocity_modifier">
	    <segment_velocity_over_time>1</segment_velocity_over_time>
	  </velocity_modifier>
	  <velocity_modifier type="sigmoid_segment_velocity">
	    <a>105</a>
	    <b>1.3</b>
	    <c>6</c>
	  </velocity_modifier>	  	  
	</velocity_manager>
	
	<proto_psc_manager type="proto_previous_segment_contribution_manager">
	  <proto_psc_modifier type="proto_previous_segment_psc"/>
	</proto_psc_manager>
	<psc_manager type="previous_segment_contribution_manager">
	  <psc_modifier type="previous_segment_psc"/>
	</psc_manager>

	<proto_pdd_manager type="proto_position_dependent_direction_manager">
	  <proto_pdd_modifier type="proto_fractional_anisotropy_pdd">
	    <proto_efd>1,1,0.55,0,0,0</proto_efd>
	  </proto_pdd_modifier>
	</proto_pdd_manager>
	<pdd_manager type="position_dependent_direction_manager">
	  <pdd_modifier type="fractional_anisotropy_pdd"/>
	</pdd_manager>

	<proto_cm_manager type="proto_contribution_mix_manager">
	  <proto_psc_modifier type="proto_psc_pdd_contribution_mix">
	    <proto_psc_weight>.3</proto_psc_weight>
	  </proto_psc_modifier>
	</proto_cm_manager>	
	<cm_manager type="contribution_mix_manager">
	  <psc_modifier type="psc_pdd_contribution_mix">
	    <psc_weight>.1</psc_weight>
	  </psc_modifier>
	</cm_manager>
	
	<matrix type="viscoelastic">
	  <t1>1.25e-5</t1>
	  <g0>0.0</g0>
	  <g1>1.0</g1>
	  <elastic type="EFD neo-Hookean">
	    <E>2.38e5</E>
	    <v>0.</v>
	    <beta>2.5,2.5,2.5</beta> 
	    <ksi>4.1045e6,4.1045e6,4.1045e6</ksi>
	  </elastic>
	</matrix>
	
	<common_properties type="angio_properties">
	  <vessel type="viscoelastic">
	    <t1>1.25e-5</t1>
	    <g0>0.0</g0>
	    <g1>1.0</g1>
	    <elastic type="neo-Hookean">
	      <E>2.38e6</E>
	      <v>0.0</v>
	    </elastic>
	  </vessel>
	  <fragment_seeder type="by_element_fragment_seeder_bidirectional">
	    <number_fragments>135</number_fragments>
	    <initial_segment_length type="prescribed_distribution">
	      <distribution lc="1"/>
	    </initial_segment_length>   
	  </fragment_seeder>
	</common_properties>
      </solid>
    </material>
  </Material>
  <Geometry>
    <Nodes name="Object01">
      <node id="1">-5.0000000e+002,-5.0000000e+002, 0.0000000e+000</node>
      <node id="2">-5.0000000e+002,-5.0000000e+002, 1.0000000e+002</node>
      <node id="3">-5.0000000e+002,-5.0000000e+002, 2.0000000e+002</node>
      <node id="4">-5.0000000e+002,-5.0000000e+002, 3.0000000e+002</node>
      <node id="5">-5.0000000e+002,-5.0000000e+002, 4.0000000e+002</node>
      <node id="6">-5.0000000e+002,-5.0000000e+002, 5.0000000e+002</node>
      <node id="7">-5.0000000e+002,-5.0000000e+002, 6.0000000e+002</node>
      <node id="8">-5.0000000e+002,-5.0000000e+002, 7.0000000e+002</node>
      <node id="9">-5.0000000e+002,-5.0000000e+002, 8.0000000e+002</node>
      <node id="10">-5.0000000e+002,-5.0000000e+002, 9.0000000e+002</node>
      <node id="11">-5.0000000e+002,-5.0000000e+002, 1.0000000e+003</node>
      <node id="12">-5.0000000e+002,-4.0000000e+002, 0.0000000e+000</node>
      <node id="13">-5.0000000e+002,-4.0000000e+002, 1.0000000e+002</node>
      <node id="14">-5.0000000e+002,-4.0000000e+002, 2.0000000e+002</node>
      <node id="15">-5.0000000e+002,-4.0000000e+002, 3.0000000e+002</node>
      <node id="16">-5.0000000e+002,-4.0000000e+002, 4.0000000e+002</node>
      <node id="17">-5.0000000e+002,-4.0000000e+002, 5.0000000e+002</node>
      <node id="18">-5.0000000e+002,-4.0000000e+002, 6.0000000e+002</node>
      <node id="19">-5.0000000e+002,-4.0000000e+002, 7.0000000e+002</node>
      <node id="20">-5.0000000e+002,-4.0000000e+002, 8.0000000e+002</node>
<!-- ... 1311 like lines cut -->
    </Nodes>
    <Elements type="hex8" mat="1" name="Part1">
      <elem id="1">     1,   122,   133,    12,     2,   123,   134,    13</elem>
      <elem id="2">     2,   123,   134,    13,     3,   124,   135,    14</elem>
      <elem id="3">     3,   124,   135,    14,     4,   125,   136,    15</elem>
      <elem id="4">     4,   125,   136,    15,     5,   126,   137,    16</elem>
      <elem id="5">     5,   126,   137,    16,     6,   127,   138,    17</elem>
      <elem id="6">     6,   127,   138,    17,     7,   128,   139,    18</elem>
      <elem id="7">     7,   128,   139,    18,     8,   129,   140,    19</elem>
      <elem id="8">     8,   129,   140,    19,     9,   130,   141,    20</elem>
      <elem id="9">     9,   130,   141,    20,    10,   131,   142,    21</elem>
      <elem id="10">    10,   131,   142,    21,    11,   132,   143,    22</elem>
      <elem id="11">    12,   133,   144,    23,    13,   134,   145,    24</elem>
      <elem id="12">    13,   134,   145,    24,    14,   135,   146,    25</elem>
      <elem id="13">    14,   135,   146,    25,    15,   136,   147,    26</elem>
      <elem id="14">    15,   136,   147,    26,    16,   137,   148,    27</elem>
      <elem id="15">    16,   137,   148,    27,    17,   138,   149,    28</elem>
      <elem id="16">    17,   138,   149,    28,    18,   139,   150,    29</elem>
      <elem id="17">    18,   139,   150,    29,    19,   140,   151,    30</elem>
      <elem id="18">    19,   140,   151,    30,    20,   141,   152,    31</elem>
      <elem id="19">    20,   141,   152,    31,    21,   142,   153,    32</elem>
      <elem id="20">    21,   142,   153,    32,    22,   143,   154,    33</elem>
<!-- ... 980 like lines cut -->
    </Elements>
    <NodeSet name="All">
      <node id="1"/>
      <node id="2"/>
      <node id="3"/>
      <node id="4"/>
      <node id="5"/>
      <node id="6"/>
      <node id="7"/>
      <node id="8"/>
      <node id="9"/>
      <node id="10"/>
      <node id="11"/>
      <node id="12"/>
      <node id="13"/>
      <node id="14"/>
      <node id="15"/>
      <node id="16"/>
      <node id="17"/>
      <node id="18"/>
      <node id="19"/>
      <node id="20"/>
<!-- ... 1311 like lines cut -->
    </NodeSet>
    <NodeSet name="BottomFace">
      <node id="1"/>
      <node id="12"/>
      <node id="23"/>
      <node id="34"/>
      <node id="45"/>
      <node id="56"/>
      <node id="67"/>
      <node id="78"/>
      <node id="89"/>
      <node id="100"/>
      <node id="111"/>
      <node id="122"/>
      <node id="133"/>
      <node id="144"/>
      <node id="155"/>
      <node id="166"/>
      <node id="177"/>
      <node id="188"/>
      <node id="199"/>
      <node id="210"/>
<!-- ... 101 like lines cut -->
    </NodeSet>
    <NodeSet name="xBar">
      <node id="56"/>
      <node id="57"/>
      <node id="58"/>
      <node id="59"/>
      <node id="60"/>
      <node id="61"/>
      <node id="62"/>
      <node id="63"/>
      <node id="64"/>
      <node id="65"/>
      <node id="66"/>
      <node id="177"/>
      <node id="178"/>
      <node id="179"/>
      <node id="180"/>
      <node id="181"/>
      <node id="182"/>
      <node id="183"/>
      <node id="184"/>
      <node id="185"/>
<!-- ... 101 like lines cut -->
    </NodeSet>
    <NodeSet name="yBar">
      <node id="606"/>
      <node id="607"/>
      <node id="608"/>
      <node id="609"/>
      <node id="610"/>
      <node id="611"/>
      <node id="612"/>
      <node id="613"/>
      <node id="614"/>
      <node id="615"/>
      <node id="616"/>
      <node id="617"/>
      <node id="618"/>
      <node id="619"/>
      <node id="620"/>
      <node id="621"/>
      <node id="622"/>
      <node id="623"/>
      <node id="624"/>
      <node id="625"/>
<!-- ... 101 like lines cut -->
    </NodeSet>
    <NodeSet name="FreeDraining">
      <node id="1"/>
      <node id="2"/>
      <node id="3"/>
      <node id="4"/>
      <node id="5"/>
      <node id="6"/>
      <node id="7"/>
      <node id="8"/>
      <node id="9"/>
      <node id="10"/>
      <node id="11"/>
      <node id="12"/>
      <node id="13"/>
      <node id="14"/>
      <node id="15"/>
      <node id="16"/>
      <node id="17"/>
      <node id="18"/>
      <node id="19"/>
      <node id="20"/>
<!-- ... 501 like lines cut -->
    </NodeSet>
  </Geometry>
  <MeshData>
    <NodeData name="repulse_value" node_set="All">
      <node lid="1">1.0</node>
      <node lid="2">1.0</node>
      <node lid="3">1.0</node>
      <node lid="4">1.0</node>
      <node lid="5">1.0</node>
      <node lid="6">1.0</node>
      <node lid="7">1.0</node>
      <node lid="8">1.0</node>
      <node lid="9">1.0</node>
      <node lid="10">1.0</node>
      <node lid="11">1.0</node>
      <node lid="12">1.0</node>
      <node lid="13">1.0</node>
      <node lid="14">1.0</node>
      <node lid="15">1.0</node>
      <node lid="16">1.0</node>
      <node lid="17">1.0</node>
      <node lid="18">1.0</node>
      <node lid="19">1.0</node>
      <node lid="20">1.0</node>
<!-- ... 582 like lines cut -->
    </NodeData>
  </MeshData>
  <Boundary>
    <fix bc="z" node_set="BottomFace"/>
    <fix bc="y" node_set="xBar"/>
    <fix bc="x" node_set="yBar"/>
    <fix bc="p" node_set="FreeDraining"/>
  </Boundary>
    <LoadData>
      <loadcurve id="1" type="linear">
	<point>30,0.00650722932078009</point>
	<point>31,0.00701743549924117</point>
	<point>32,0.00755291201065641</point>
	<point>33,0.00811127464270498</point>
	<point>34,0.00868909841372613</point>
	<point>35,0.00928179708922169</point>
	<point>36,0.0098835424160014</point>
	<point>37,0.0104872447819563</point>
	<point>38,0.0110846175530915</point>
	<point>39,0.0116663442472312</point>
	<point>40,0.0122223599405057</point>
	<point>41,0.0127422456104842</point>
	<point>42,0.0132157175164474</point>
	<point>43,0.0136331757493896</point>
	<point>44,0.0139862605788319</point>
	<point>45,0.0142683564149464</point>
	<point>46,0.0144749843977533</point>
	<point>47,0.0146040368673086</point>
	<point>48,0.0146558283453383</point>
	<point>49,0.0146329636445019</point>
<!-- ... 751 like lines cut -->
      </loadcurve>
  </LoadData>
  <Output>
    <plotfile type="febio">
      <var type="displacement"/>
      <var type="stress"/>
      <var type="angio stress"/>
      <var type="angio ECM density"/>
      <var type="matrix stress"/>
      <var type="vessel stress"/>
      <var type="density"/>
      <var type="fluid pressure"/>
      <var type="fluid flux"/>
      <var type="angio repulse value"/>
      <var type="angio SPD"/>
    </plotfile>
  </Output>
</febio_spec>
