<?xml version="1.0" encoding="ISO-8859-1"?>
<febio_spec version="2.5">
  <Module type="multiphasic" />
  <Control>
    <symmetric_stiffness>0</symmetric_stiffness>
    <time_steps>20</time_steps>
    <step_size>0.5</step_size>
    <time_stepper>
      <dtmin>1e-4</dtmin>
      <dtmax>1</dtmax>
      <max_retries>10</max_retries>
      <opt_iter>10</opt_iter>
    </time_stepper>
    <max_refs>15</max_refs>
    <max_ups>0</max_ups>
    <dtol>0.01</dtol>
    <ptol>0.1</ptol>
    <etol>0.1</etol>
    <lstol>0.9</lstol>
    <min_residual>1e-020</min_residual>
    <analysis type="static" />
  </Control>
  <Globals>
    <Constants>
      <T>298</T>
      <R>8.314e-15</R>
      <Fc>96485e-15</Fc>
      <seed>60000</seed>
      <min_scale_factor>0.01</min_scale_factor>
      <bounds_tolerance>1e-1</bounds_tolerance>
      <growth_substeps>3</growth_substeps>
      <min_angio_dt>0.1</min_angio_dt>
      <max_angio_dt>0.5</max_angio_dt>
      <bounce>1</bounce>
    </Constants>
  </Globals>
  <Material>
    <material id="1" name="MaterialCore" type="multiphasic">
      <phi0>0.00567</phi0>
      <permeability type="perm-const-iso">
        <perm>3.588e4</perm>
      </permeability>
      <osmotic_coefficient type="osm-coef-const">
        <osmcoef>1</osmcoef>
      </osmotic_coefficient>
      <fixed_charge_density>0</fixed_charge_density>

      <solid type="angio_mat">
        <mix_method type="LinRot" />
        <angio_stress_policy type="sigmoid_dens_angio_stress_policy">
          <fan_exponential>2</fan_exponential>
        </angio_stress_policy>

        <im_manager type="im_manager">
          <initial_modifier type="discrete_fiber_efd_randomizer">
            <spd>2.7978,1.0,0.7,0,0,0</spd>
          </initial_modifier>
          <initial_modifier type="density_initializer">
            <initial_density>3.0</initial_density>
          </initial_modifier>
        </im_manager>

        <velocity_manager type="segment_growth_velocity_manager">
          <velocity_modifier type="segment_velocity_modifier">
            <segment_velocity_over_time>2.4</segment_velocity_over_time>
          </velocity_modifier>
          <velocity_modifier type="sigmoid_segment_velocity">
            <a>105</a>
            <b>1.3</b>
            <c>6</c>
          </velocity_modifier>
        </velocity_manager>

        <proto_psc_manager type="proto_previous_segment_contribution_manager">
          <proto_psc_modifier type="proto_previous_segment_psc" />
        </proto_psc_manager>
        <psc_manager type="previous_segment_contribution_manager">
          <psc_modifier type="previous_segment_psc" />
        </psc_manager>

        <proto_pdd_manager type="proto_position_dependent_direction_manager">
          <proto_pdd_modifier type="proto_fractional_anisotropy_pdd">
            <proto_efd>1,1,0.35,0,0,0</proto_efd>
          </proto_pdd_modifier>
        </proto_pdd_manager>

        <pdd_manager type="position_dependent_direction_manager">
          <pdd_modifier type="fiber_pdd">
            <interpolation_prop type="per_element_vi" />
          </pdd_modifier>
        </pdd_manager>

        <proto_cm_manager type="proto_contribution_mix_manager">
          <proto_psc_modifier type="proto_psc_pdd_contribution_mix">
            <proto_psc_weight>.3</proto_psc_weight>
          </proto_psc_modifier>
        </proto_cm_manager>
        <cm_manager type="contribution_mix_manager">
          <psc_modifier type="psc_pdd_contribution_mix">
            <psc_weight>.3</psc_weight>
          </psc_modifier>
        </cm_manager>

        <matrix type="viscoelastic">
          <t1>1.25e-5</t1>
          <g0>0.0</g0>
          <g1>1.0</g1>
          <elastic type="solid mixture">
            <solid type="neo-Hookean">
              <E>2.38e5</E>
              <v>0.</v>
            </solid>
            <solid type="continuous fiber distribution">
              <fibers type="fiber-exp-pow">
                <alpha>0</alpha>
                <beta>2.5</beta>
                <ksi>1.288e8</ksi>
              </fibers>
              <distribution type="ellipsoidal">
                <spa>2.7978,1.0,0.7</spa>
              </distribution>
              <scheme type="fibers-3d-gkt">
                <nph>7</nph>
                <nth>11</nth>
              </scheme>
            </solid>
          </elastic>
        </matrix>

        <common_properties type="angio_properties">
          <vessel type="viscoelastic">
            <t1>1.25e-5</t1>
            <g0>0.0</g0>
            <g1>1.0</g1>
            <elastic type="neo-Hookean">
              <E>2.38e6</E>
              <v>0.0</v>
            </elastic>
          </vessel>
          <fragment_seeder type="by_element_fragment_seeder_bidirectional">
            <number_fragments>135</number_fragments>
            <initial_segment_length type="prescribed_distribution">
              <distribution lc="1" />
            </initial_segment_length>
          </fragment_seeder>
        </common_properties>
      </solid>
    </material>
    <material id="2" name="MaterialField" type="multiphasic">
      <phi0>0.00567</phi0>
      <permeability type="perm-const-iso">
        <perm>3.588e4</perm>
      </permeability>
      <osmotic_coefficient type="osm-coef-const">
        <osmcoef>1</osmcoef>
      </osmotic_coefficient>
      <fixed_charge_density>0</fixed_charge_density>

      <solid type="angio_mat">
        <mix_method type="LinRot" />
        <angio_stress_policy type="sigmoid_dens_angio_stress_policy">
          <fan_exponential>2</fan_exponential>
        </angio_stress_policy>

        <im_manager type="im_manager">
          <initial_modifier type="discrete_fiber_efd_randomizer">
            <spd>2.7978,1.0,0.7,0,0,0</spd>
          </initial_modifier>
          <initial_modifier type="density_initializer">
            <initial_density>3.0</initial_density>
          </initial_modifier>
        </im_manager>

        <velocity_manager type="segment_growth_velocity_manager">
          <velocity_modifier type="segment_velocity_modifier">
            <segment_velocity_over_time>2.4</segment_velocity_over_time>
          </velocity_modifier>
          <velocity_modifier type="sigmoid_segment_velocity">
            <a>105</a>
            <b>1.3</b>
            <c>6</c>
          </velocity_modifier>
        </velocity_manager>

        <proto_psc_manager type="proto_previous_segment_contribution_manager">
          <proto_psc_modifier type="proto_previous_segment_psc" />
        </proto_psc_manager>
        <psc_manager type="previous_segment_contribution_manager">
          <psc_modifier type="previous_segment_psc" />
        </psc_manager>

        <proto_pdd_manager type="proto_position_dependent_direction_manager">
          <proto_pdd_modifier type="proto_fractional_anisotropy_pdd">
            <proto_efd>1,1,0.35,0,0,0</proto_efd>
          </proto_pdd_modifier>
        </proto_pdd_manager>

        <pdd_manager type="position_dependent_direction_manager">
          <pdd_modifier type="fiber_pdd">
            <interpolation_prop type="per_element_vi" />
          </pdd_modifier>
        </pdd_manager>

        <proto_cm_manager type="proto_contribution_mix_manager">
          <proto_psc_modifier type="proto_psc_pdd_contribution_mix">
            <proto_psc_weight>.3</proto_psc_weight>
          </proto_psc_modifier>
        </proto_cm_manager>
        <cm_manager type="contribution_mix_manager">
          <psc_modifier type="psc_pdd_contribution_mix">
            <psc_weight>.3</psc_weight>
          </psc_modifier>
        </cm_manager>

        <matrix type="viscoelastic">
          <t1>1.25e-5</t1>
          <g0>0.0</g0>
          <g1>1.0</g1>
          <elastic type="solid mixture">
            <solid type="neo-Hookean">
              <E>2.38e5</E>
              <v>0.</v>
            </solid>
            <solid type="continuous fiber distribution">
              <fibers type="fiber-exp-pow">
                <alpha>0</alpha>
                <beta>2.5</beta>
                <ksi>1.288e8</ksi>
              </fibers>
              <distribution type="ellipsoidal">
                <spa>2.7978,1.0,0.7</spa>
              </distribution>
              <scheme type="fibers-3d-gkt">
                <nph>7</nph>
                <nth>11</nth>
              </scheme>
            </solid>
          </elastic>
        </matrix>

        <common_properties type="angio_properties">
          <vessel type="viscoelastic">
            <t1>1.25e-5</t1>
            <g0>0.0</g0>
            <g1>1.0</g1>
            <elastic type="neo-Hookean">
              <E>2.38e6</E>
              <v>0.0</v>
            </elastic>
          </vessel>
          <fragment_seeder type="by_element_fragment_seeder_bidirectional">
            <number_fragments>0</number_fragments>
            <initial_segment_length type="prescribed_distribution">
              <distribution lc="1" />
            </initial_segment_length>
          </fragment_seeder>
        </common_properties>
      </solid>
    </material>
  </Material>
  <Geometry>
    <Nodes name="Object1">
      <node id="1"> -8.0000000e+02, -7.0000000e+02, -7.0000000e+02</node>
      <node id="2"> 8.0000000e+02, -7.0000000e+02, -7.0000000e+02</node>
      <node id="3"> 8.0000000e+02, 7.0000000e+02, -7.0000000e+02</node>
      <node id="4"> -8.0000000e+02, 7.0000000e+02, -7.0000000e+02</node>
      <node id="5"> -8.0000000e+02, -7.0000000e+02, 7.0000000e+02</node>
      <node id="6"> 8.0000000e+02, -7.0000000e+02, 7.0000000e+02</node>
      <node id="7"> 8.0000000e+02, 7.0000000e+02, 7.0000000e+02</node>
      <node id="8"> -8.0000000e+02, 7.0000000e+02, 7.0000000e+02</node>
      <node id="9"> -7.0000000e+02, -7.0000000e+02, -7.0000000e+02</node>
      <node id="10"> -6.0000000e+02, -7.0000000e+02, -7.0000000e+02</node>
      <node id="11"> -5.0000000e+02, -7.0000000e+02, -7.0000000e+02</node>
      <node id="12"> -4.0000000e+02, -7.0000000e+02, -7.0000000e+02</node>
      <node id="13"> -3.0000000e+02, -7.0000000e+02, -7.0000000e+02</node>
      <node id="14"> -2.0000000e+02, -7.0000000e+02, -7.0000000e+02</node>
      <node id="15"> -1.0000000e+02, -7.0000000e+02, -7.0000000e+02</node>
      <node id="16"> 0.0000000e+00, -7.0000000e+02, -7.0000000e+02</node>
      <node id="17"> 1.0000000e+02, -7.0000000e+02, -7.0000000e+02</node>
      <node id="18"> 2.0000000e+02, -7.0000000e+02, -7.0000000e+02</node>
      <node id="19"> 3.0000000e+02, -7.0000000e+02, -7.0000000e+02</node>
      <node id="20"> 4.0000000e+02, -7.0000000e+02, -7.0000000e+02</node>
<!-- ... 3805 like lines cut -->
    </Nodes>
    <Elements type="hex8" mat="1" name="Core">
      <elem id="1"> 1503, 1504, 1519, 1518, 1698, 1699, 1714, 1713</elem>
      <elem id="2"> 1504, 1505, 1520, 1519, 1699, 1700, 1715, 1714</elem>
      <elem id="3"> 1505, 1506, 1521, 1520, 1700, 1701, 1716, 1715</elem>
      <elem id="4"> 1506, 1507, 1522, 1521, 1701, 1702, 1717, 1716</elem>
      <elem id="5"> 1507, 1508, 1523, 1522, 1702, 1703, 1718, 1717</elem>
      <elem id="6"> 1508, 1509, 1524, 1523, 1703, 1704, 1719, 1718</elem>
      <elem id="7"> 1509, 1510, 1525, 1524, 1704, 1705, 1720, 1719</elem>
      <elem id="8"> 1510, 1511, 1526, 1525, 1705, 1706, 1721, 1720</elem>
      <elem id="9"> 1511, 1512, 1527, 1526, 1706, 1707, 1722, 1721</elem>
      <elem id="10"> 1512, 1513, 1528, 1527, 1707, 1708, 1723, 1722</elem>
      <elem id="11"> 1518, 1519, 1534, 1533, 1713, 1714, 1729, 1728</elem>
      <elem id="12"> 1519, 1520, 1535, 1534, 1714, 1715, 1730, 1729</elem>
      <elem id="13"> 1520, 1521, 1536, 1535, 1715, 1716, 1731, 1730</elem>
      <elem id="14"> 1521, 1522, 1537, 1536, 1716, 1717, 1732, 1731</elem>
      <elem id="15"> 1522, 1523, 1538, 1537, 1717, 1718, 1733, 1732</elem>
      <elem id="16"> 1523, 1524, 1539, 1538, 1718, 1719, 1734, 1733</elem>
      <elem id="17"> 1524, 1525, 1540, 1539, 1719, 1720, 1735, 1734</elem>
      <elem id="18"> 1525, 1526, 1541, 1540, 1720, 1721, 1736, 1735</elem>
      <elem id="19"> 1526, 1527, 1542, 1541, 1721, 1722, 1737, 1736</elem>
      <elem id="20"> 1527, 1528, 1543, 1542, 1722, 1723, 1738, 1737</elem>
<!-- ... 980 like lines cut -->
    </Elements>
    <Elements type="hex8" mat="2" name="Field">
      <elem id="1001"> 1, 9, 1081, 159, 64, 173, 1291, 744</elem>
      <elem id="1002"> 9, 10, 1082, 1081, 173, 174, 1292, 1291</elem>
      <elem id="1003"> 10, 11, 1083, 1082, 174, 175, 1293, 1292</elem>
      <elem id="1004"> 11, 12, 1084, 1083, 175, 176, 1294, 1293</elem>
      <elem id="1005"> 12, 13, 1085, 1084, 176, 177, 1295, 1294</elem>
      <elem id="1006"> 13, 14, 1086, 1085, 177, 178, 1296, 1295</elem>
      <elem id="1007"> 14, 15, 1087, 1086, 178, 179, 1297, 1296</elem>
      <elem id="1008"> 15, 16, 1088, 1087, 179, 180, 1298, 1297</elem>
      <elem id="1009"> 16, 17, 1089, 1088, 180, 181, 1299, 1298</elem>
      <elem id="1010"> 17, 18, 1090, 1089, 181, 182, 1300, 1299</elem>
      <elem id="1011"> 18, 19, 1091, 1090, 182, 183, 1301, 1300</elem>
      <elem id="1012"> 19, 20, 1092, 1091, 183, 184, 1302, 1301</elem>
      <elem id="1013"> 20, 21, 1093, 1092, 184, 185, 1303, 1302</elem>
      <elem id="1014"> 21, 22, 1094, 1093, 185, 186, 1304, 1303</elem>
      <elem id="1015"> 22, 23, 1095, 1094, 186, 187, 1305, 1304</elem>
      <elem id="1016"> 23, 2, 65, 1095, 187, 24, 368, 1305</elem>
      <elem id="1017"> 159, 1081, 1066, 158, 744, 1291, 1306, 743</elem>
      <elem id="1018"> 1081, 1082, 1067, 1066, 1291, 1292, 1307, 1306</elem>
      <elem id="1019"> 1082, 1083, 1068, 1067, 1292, 1293, 1308, 1307</elem>
      <elem id="1020"> 1083, 1084, 1069, 1068, 1293, 1294, 1309, 1308</elem>
<!-- ... 2116 like lines cut -->
    </Elements>
    <NodeSet name="xBar">
      <node id="71" />
      <node id="97" />
      <node id="153" />
      <node id="166" />
      <node id="374" />
      <node id="387" />
      <node id="400" />
      <node id="413" />
      <node id="426" />
      <node id="439" />
      <node id="452" />
      <node id="465" />
      <node id="478" />
      <node id="491" />
      <node id="504" />
      <node id="517" />
      <node id="530" />
      <node id="738" />
      <node id="751" />
      <node id="764" />
<!-- ... 235 like lines cut -->
    </NodeSet>
    <NodeSet name="yBar">
      <node id="16" />
      <node id="44" />
      <node id="111" />
      <node id="139" />
      <node id="180" />
      <node id="195" />
      <node id="210" />
      <node id="225" />
      <node id="240" />
      <node id="255" />
      <node id="270" />
      <node id="285" />
      <node id="300" />
      <node id="315" />
      <node id="330" />
      <node id="345" />
      <node id="360" />
      <node id="544" />
      <node id="559" />
      <node id="574" />
<!-- ... 205 like lines cut -->
    </NodeSet>
    <NodeSet name="zBar">
      <node id="30" />
      <node id="58" />
      <node id="84" />
      <node id="125" />
      <node id="263" />
      <node id="264" />
      <node id="265" />
      <node id="266" />
      <node id="267" />
      <node id="268" />
      <node id="269" />
      <node id="270" />
      <node id="271" />
      <node id="272" />
      <node id="273" />
      <node id="274" />
      <node id="275" />
      <node id="276" />
      <node id="277" />
      <node id="446" />
<!-- ... 235 like lines cut -->
    </NodeSet>
    <NodeSet name="FreeDraining">
      <node id="1" />
      <node id="2" />
      <node id="3" />
      <node id="4" />
      <node id="5" />
      <node id="6" />
      <node id="7" />
      <node id="8" />
      <node id="9" />
      <node id="10" />
      <node id="11" />
      <node id="12" />
      <node id="13" />
      <node id="14" />
      <node id="15" />
      <node id="16" />
      <node id="17" />
      <node id="18" />
      <node id="19" />
      <node id="20" />
<!-- ... 1270 like lines cut -->
    </NodeSet>
  </Geometry>
  <Boundary>
    <fix bc="z" node_set="zBar" />
    <fix bc="y" node_set="xBar" />
    <fix bc="x" node_set="yBar" />
    <fix bc="p" node_set="FreeDraining" />
  </Boundary>
  <LoadData>
    <loadcurve id="1" type="linear">
      <point>30,0.00650722932078009</point>
      <point>31,0.00701743549924117</point>
      <point>32,0.00755291201065641</point>
      <point>33,0.00811127464270498</point>
      <point>34,0.00868909841372613</point>
      <point>35,0.00928179708922169</point>
      <point>36,0.0098835424160014</point>
      <point>37,0.0104872447819563</point>
      <point>38,0.0110846175530915</point>
      <point>39,0.0116663442472312</point>
      <point>40,0.0122223599405057</point>
      <point>41,0.0127422456104842</point>
      <point>42,0.0132157175164474</point>
      <point>43,0.0136331757493896</point>
      <point>44,0.0139862605788319</point>
      <point>45,0.0142683564149464</point>
      <point>46,0.0144749843977533</point>
      <point>47,0.0146040368673086</point>
      <point>48,0.0146558283453383</point>
      <point>49,0.0146329636445019</point>
<!-- ... 751 like lines cut -->
    </loadcurve>
  </LoadData>
  <Output>
    <plotfile type="febio">
      <var type="displacement" />
      <var type="stress" />
      <var type="angio stress" />
      <var type="angio ECM density" />
      <var type="matrix stress" />
      <var type="vessel stress" />
      <var type="density" />
      <var type="fluid pressure" />
      <var type="fluid flux" />
      <var type="angio SPD" />
    </plotfile>
  </Output>
</febio_spec>