<?xml version="1.0" encoding="ISO-8859-1"?>
<febio_spec version="2.5">
  <Module type="multiphasic"/>
  <Control>
    <symmetric_stiffness>0</symmetric_stiffness>
    <time_steps>20</time_steps>
    <step_size>0.5</step_size>
    <time_stepper>
      <dtmin>0.25</dtmin>
      <dtmax>1</dtmax>
      <max_retries>10</max_retries>
      <opt_iter>10</opt_iter>
    </time_stepper>
    <max_refs>15</max_refs>
    <max_ups>0</max_ups>
    <dtol>0.01</dtol>
    <ptol>0.1</ptol>
    <etol>0.1</etol>
    <lstol>0.9</lstol>
    <min_residual>1e-020</min_residual>
    <analysis type="static"/>
  </Control>
  <Globals>
    <Constants>
      <T>298</T>
      <R>8.314e-15</R>
      <Fc>96485e-15</Fc> 
      <seed>0</seed>
      <min_scale_factor>0.01</min_scale_factor>
      <bounds_tolerance>1e-3</bounds_tolerance>
      <growth_substeps>3</growth_substeps>
      <min_angio_dt>0.1</min_angio_dt>      
      <max_angio_dt>0.5</max_angio_dt>
      <bounce>0</bounce>
    </Constants>
  </Globals>
  <Material>
    <material id="1" name="Core" type="multiphasic">
      <phi0>0.00567</phi0>
      <permeability type="perm-const-iso">
	<perm>3.588e4</perm>
      </permeability>
      <osmotic_coefficient type="osm-coef-const">
	<osmcoef>1</osmcoef>
      </osmotic_coefficient>
      <fixed_charge_density>0</fixed_charge_density>

      <solid type="angio_mat">
	<mix_method type="LinRot"/>
	<angio_stress_policy type="sigmoid_dens_angio_stress_policy">
	  <x0>7</x0>
	</angio_stress_policy>
	<im_manager type="im_manager">
	  <initial_modifier type="rot_efd_initializer">
	    <spd>1.3,1,0.3,0,0,0</spd>
	  </initial_modifier>
	  <initial_modifier type="density_initializer">
	    <initial_density>3</initial_density>
	  </initial_modifier>
	</im_manager>
	
	<velocity_manager type="segment_growth_velocity_manager">
	  <velocity_modifier type="segment_velocity_modifier">
	    <segment_velocity_over_time>1</segment_velocity_over_time>
	  </velocity_modifier>
	  <velocity_modifier type="segment_velocity_density_fa_scale_modifier">
	    <interpolation_prop type="per_element_vi"/>
	  </velocity_modifier>
	  <velocity_modifier type="sigmoid_segment_velocity">
	    <a>280</a>
	    <b>1.3</b>
	    <c>6</c>
	  </velocity_modifier>
	</velocity_manager>
	
	<proto_psc_manager type="proto_previous_segment_contribution_manager">
	  <proto_psc_modifier type="proto_previous_segment_psc"/>
	</proto_psc_manager>
	<psc_manager type="previous_segment_contribution_manager">
	  <psc_modifier type="previous_segment_psc"/>
	</psc_manager>

	<proto_pdd_manager type="proto_position_dependent_direction_manager">
	  <proto_pdd_modifier type="proto_fractional_anisotropy_pdd">
	    <proto_efd>1,1,0.5,0,0,0</proto_efd>
	  </proto_pdd_modifier>
	</proto_pdd_manager>
	<pdd_manager type="position_dependent_direction_manager">
	  <pdd_modifier type="fractional_anisotropy_pdd"/>
	</pdd_manager>

	<proto_cm_manager type="proto_contribution_mix_manager">
	  <proto_psc_modifier type="proto_psc_pdd_contribution_mix">
	    <proto_psc_weight>.3</proto_psc_weight>
	  </proto_psc_modifier>
	</proto_cm_manager>
	<cm_manager type="contribution_mix_manager">
	  <psc_modifier type="density_FA_contribution_mix"/>
	</cm_manager>

      <branch_policy type="delayed_branching_policy_efd">
	<interpolation_prop type="per_element_vi"></interpolation_prop>
	<azimuth_angle type="azimuth_angle_probability_distribution">
	  <angle type="uniform_distribution">
	    <a>0</a>
	    <b>6.2831</b>
	    <time_clamped>0</time_clamped>
	  </angle>
	</azimuth_angle>
	<zenith_angle type="zenith_angle_probability_distribution">
	  <angle type="uniform_distribution">
	    <a>0.5</a>
	    <b>1.2</b>
	    <time_clamped>0</time_clamped>	    
	  </angle>
	</zenith_angle>
	<length_to_branch type="normal_distribution">
	  <mean>150</mean>
	  <stddev>10</stddev>
	</length_to_branch>
	<time_to_emerge type="fixed_distribution">
	  <value>1</value>
	</time_to_emerge>
      </branch_policy>
	
	<matrix type="viscoelastic">
	  <t1>1.25e-5</t1>
	  <g0>0.0</g0>
	  <g1>1.0</g1>
	  <elastic type="EFD neo-Hookean">
	    <E>2.38e5</E>
	    <v>0.</v>
	    <beta>2.5,2.5,2.5</beta> 
	    <ksi>4.1045e6,4.1045e6,4.1045e6</ksi>
	  </elastic>
	</matrix>
	
	<common_properties type="angio_properties">
	  <vessel type="viscoelastic">
	    <t1>1.25e-5</t1>
	    <g0>0.0</g0>
	    <g1>1.0</g1>
	    <elastic type="neo-Hookean">
	      <E>2.38e6</E>
	      <v>0.0</v>
	    </elastic>
	  </vessel>
	  <fragment_seeder type="by_volume_fragment_seeder_bidirectional">
	    <number_fragments>104</number_fragments>
	    <initial_segment_length type="prescribed_distribution">
	      <distribution lc="1"/>
	    </initial_segment_length>
	    <proto_mat_cross>0</proto_mat_cross>
	  </fragment_seeder>
	</common_properties>
      </solid>      
    </material>
    <material id="2" name="Interface" type="multiphasic">
      <phi0>0.00567</phi0>
      <permeability type="perm-const-iso">
	<perm>3.588e4</perm>
      </permeability>
      <osmotic_coefficient type="osm-coef-const">
	<osmcoef>1</osmcoef>
      </osmotic_coefficient>
      <fixed_charge_density>0</fixed_charge_density>

      <solid type="angio_mat">
	<mix_method type="LinRot"/>
	<angio_stress_policy type="sigmoid_dens_angio_stress_policy">
	  <x0>7</x0>
	</angio_stress_policy>
	<im_manager type="im_manager">
	  <initial_modifier type="efd_initializer">
	    <spd>1,3,0.3,0,0,0</spd>
	  </initial_modifier>
	  <initial_modifier type="density_initializer">
	    <initial_density>3</initial_density>
	  </initial_modifier>
	</im_manager>
	
	<velocity_manager type="segment_growth_velocity_manager">
	  <velocity_modifier type="segment_velocity_modifier">
	    <segment_velocity_over_time>1</segment_velocity_over_time>
	  </velocity_modifier>
	  <velocity_modifier type="segment_velocity_density_fa_scale_modifier">
	    <interpolation_prop type="per_element_vi"/>
	  </velocity_modifier>
	  <velocity_modifier type="sigmoid_segment_velocity">
	    <a>280</a>
	    <b>1.3</b>
	    <c>6</c>
	  </velocity_modifier>
	</velocity_manager>
	
	<proto_psc_manager type="proto_previous_segment_contribution_manager">
	  <proto_psc_modifier type="proto_previous_segment_psc"/>
	</proto_psc_manager>
	<psc_manager type="previous_segment_contribution_manager">
	  <psc_modifier type="previous_segment_psc"/>
	</psc_manager>

	<proto_pdd_manager type="proto_position_dependent_direction_manager">
	  <proto_pdd_modifier type="proto_fractional_anisotropy_pdd">
	    <proto_efd>1,1,1,0,0,0</proto_efd>
	  </proto_pdd_modifier>
	</proto_pdd_manager>
	<pdd_manager type="position_dependent_direction_manager">
	  <pdd_modifier type="fractional_anisotropy_pdd"/>
	</pdd_manager>

	<proto_cm_manager type="proto_contribution_mix_manager">
	  <proto_psc_modifier type="proto_psc_pdd_contribution_mix">
	    <proto_psc_weight>.3</proto_psc_weight>
	  </proto_psc_modifier>
	</proto_cm_manager>
	<!--cm_manager type="contribution_mix_manager">
	  <psc_modifier type="psc_pdd_contribution_mix">
	    <psc_weight>0.36</psc_weight>
	  </psc_modifier>
	</cm_manager-->		
	<cm_manager type="contribution_mix_manager">
	  <psc_modifier type="density_FA_contribution_mix"/>
	</cm_manager>

      <branch_policy type="delayed_branching_policy_efd">
	<interpolation_prop type="per_element_vi"></interpolation_prop>
	<azimuth_angle type="azimuth_angle_probability_distribution">
	  <angle type="uniform_distribution">
	    <a>0</a>
	    <b>6.2831</b>
	    <time_clamped>0</time_clamped>
	  </angle>
	</azimuth_angle>
	<zenith_angle type="zenith_angle_probability_distribution">
	  <angle type="uniform_distribution">
	    <a>0.5</a>
	    <b>1.2</b>
	    <time_clamped>0</time_clamped>	    
	  </angle>
	</zenith_angle>
	<length_to_branch type="normal_distribution">
	  <mean>150</mean>
	  <stddev>10</stddev>
	</length_to_branch>
	<time_to_emerge type="fixed_distribution">
	  <value>1</value>
	</time_to_emerge>
      </branch_policy>
	
	<matrix type="viscoelastic">
	  <t1>1.25e-5</t1>
	  <g0>0.0</g0>
	  <g1>1.0</g1>
	  <elastic type="EFD neo-Hookean">
	    <E>2.38e5</E>
	    <v>0.</v>
	    <beta>2.5,2.5,2.5</beta> 
	    <ksi>4.1045e6,4.1045e6,4.1045e6</ksi>
	  </elastic>
	</matrix>
	
	<common_properties type="angio_properties">
	  <vessel type="viscoelastic">
	    <t1>1.25e-5</t1>
	    <g0>0.0</g0>
	    <g1>1.0</g1>
	    <elastic type="neo-Hookean">
	      <E>2.38e6</E>
	      <v>0.0</v>
	    </elastic>
	  </vessel>
	  <fragment_seeder type="by_volume_fragment_seeder_bidirectional">
	    <number_fragments>0</number_fragments>
	    <initial_segment_length type="prescribed_distribution">
	      <distribution lc="1"/>
	    </initial_segment_length>   
	  </fragment_seeder>
	</common_properties>
      </solid>            
    </material>
    <material id="3" name="Field" type="multiphasic">
      <phi0>0.00567</phi0>
      <permeability type="perm-const-iso">
	<perm>3.588e4</perm>
      </permeability>
      <osmotic_coefficient type="osm-coef-const">
	<osmcoef>1</osmcoef>
      </osmotic_coefficient>
      <fixed_charge_density>0</fixed_charge_density>

      <solid type="angio_mat">
	<mix_method type="LinRot"/>
	<angio_stress_policy type="sigmoid_dens_angio_stress_policy">
	  <x0>7</x0>
	</angio_stress_policy>
	<im_manager type="im_manager">
	  <initial_modifier type="rot_efd_initializer">
	    <spd>1.3,1,0.3,0,0,0</spd>
	  </initial_modifier>
	  <initial_modifier type="density_initializer">
	    <initial_density>3</initial_density>
	  </initial_modifier>
	</im_manager>
	
	<velocity_manager type="segment_growth_velocity_manager">
	  <velocity_modifier type="segment_velocity_modifier">
	    <segment_velocity_over_time>1</segment_velocity_over_time>
	  </velocity_modifier>
	  <velocity_modifier type="segment_velocity_density_fa_scale_modifier">
	    <interpolation_prop type="per_element_vi"/>
	  </velocity_modifier>
	  <velocity_modifier type="sigmoid_segment_velocity">
	    <a>280</a>
	    <b>1.3</b>
	    <c>6</c>
	  </velocity_modifier>
	</velocity_manager>
	
	<proto_psc_manager type="proto_previous_segment_contribution_manager">
	  <proto_psc_modifier type="proto_previous_segment_psc"/>
	</proto_psc_manager>
	<psc_manager type="previous_segment_contribution_manager">
	  <psc_modifier type="previous_segment_psc"/>
	</psc_manager>

	<proto_pdd_manager type="proto_position_dependent_direction_manager">
	  <proto_pdd_modifier type="proto_fractional_anisotropy_pdd">
	    <proto_efd>1,1,1,0,0,0</proto_efd>
	  </proto_pdd_modifier>
	</proto_pdd_manager>
	<pdd_manager type="position_dependent_direction_manager">
	  <pdd_modifier type="fractional_anisotropy_pdd"/>
	</pdd_manager>

	<proto_cm_manager type="proto_contribution_mix_manager">
	  <proto_psc_modifier type="proto_psc_pdd_contribution_mix">
	    <proto_psc_weight>.3</proto_psc_weight>
	  </proto_psc_modifier>
	</proto_cm_manager>
	<!--cm_manager type="contribution_mix_manager">
	  <psc_modifier type="psc_pdd_contribution_mix">
	    <psc_weight>0.5</psc_weight>
	  </psc_modifier>
	</cm_manager-->		
	<cm_manager type="contribution_mix_manager">
	  <psc_modifier type="density_FA_contribution_mix"/>
	</cm_manager>

      <branch_policy type="delayed_branching_policy_efd">
	<interpolation_prop type="per_element_vi"></interpolation_prop>
	<azimuth_angle type="azimuth_angle_probability_distribution">
	  <angle type="uniform_distribution">
	    <a>0</a>
	    <b>6.2831</b>
	    <time_clamped>0</time_clamped>
	  </angle>
	</azimuth_angle>
	<zenith_angle type="zenith_angle_probability_distribution">
	  <angle type="uniform_distribution">
	    <a>0.5</a>
	    <b>1.2</b>
	    <time_clamped>0</time_clamped>	    
	  </angle>
	</zenith_angle>
	<length_to_branch type="normal_distribution">
	  <mean>150</mean>
	  <stddev>10</stddev>
	</length_to_branch>
	<time_to_emerge type="fixed_distribution">
	  <value>1</value>
	</time_to_emerge>
      </branch_policy>
	
	<matrix type="viscoelastic">
	  <t1>1.25e-5</t1>
	  <g0>0.0</g0>
	  <g1>1.0</g1>
	  <elastic type="EFD neo-Hookean">
	    <E>2.38e5</E>
	    <v>0.</v>
	    <beta>2.5,2.5,2.5</beta> 
	    <ksi>4.1045e6,4.1045e6,4.1045e6</ksi>
	  </elastic>
	</matrix>
	
	<common_properties type="angio_properties">
	  <vessel type="viscoelastic">
	    <t1>1.25e-5</t1>
	    <g0>0.0</g0>
	    <g1>1.0</g1>
	    <elastic type="neo-Hookean">
	      <E>2.38e6</E>
	      <v>0.0</v>
	    </elastic>
	  </vessel>
	  <fragment_seeder type="by_volume_fragment_seeder_bidirectional">
	    <number_fragments>0</number_fragments>
	    <initial_segment_length type="prescribed_distribution">
	      <distribution lc="1"/>
	    </initial_segment_length>   
	  </fragment_seeder>
	</common_properties>
      </solid>      
    </material>
  </Material>
  <Geometry>
    <Nodes name="MergedObject1">
      <node id="1"> -4.0000000e+02, -4.0000000e+01, -3.0000000e+02</node>
      <node id="2"> -3.0000000e+02, -4.0000000e+01, -3.0000000e+02</node>
      <node id="3"> -2.0000000e+02, -4.0000000e+01, -3.0000000e+02</node>
      <node id="4"> -1.0000000e+02, -4.0000000e+01, -3.0000000e+02</node>
      <node id="5">  2.8421709e-14, -4.0000000e+01, -3.0000000e+02</node>
      <node id="6">  1.0000000e+02, -4.0000000e+01, -3.0000000e+02</node>
      <node id="7">  2.0000000e+02, -4.0000000e+01, -3.0000000e+02</node>
      <node id="8">  3.0000000e+02, -4.0000000e+01, -3.0000000e+02</node>
      <node id="9">  4.0000000e+02, -4.0000000e+01, -3.0000000e+02</node>
      <node id="10">  5.0000000e+02, -4.0000000e+01, -2.0000000e+02</node>
      <node id="11">  5.0000000e+02, -4.0000000e+01, -1.0000000e+02</node>
      <node id="12">  5.0000000e+02, -4.0000000e+01, -5.6843419e-14</node>
      <node id="13">  5.0000000e+02, -4.0000000e+01,  1.0000000e+02</node>
      <node id="14">  5.0000000e+02, -4.0000000e+01,  2.0000000e+02</node>
      <node id="15">  4.0000000e+02, -4.0000000e+01,  3.0000000e+02</node>
      <node id="16">  3.0000000e+02, -4.0000000e+01,  3.0000000e+02</node>
      <node id="17">  2.0000000e+02, -4.0000000e+01,  3.0000000e+02</node>
      <node id="18">  1.0000000e+02, -4.0000000e+01,  3.0000000e+02</node>
      <node id="19">  2.8421709e-14, -4.0000000e+01,  3.0000000e+02</node>
      <node id="20"> -1.0000000e+02, -4.0000000e+01,  3.0000000e+02</node>
<!-- ... 1443 like lines cut -->
    </Nodes>
    <Elements type="hex8" mat="2" name="Part8">
      <elem id="1">   847,     1,   161,    59,    28,    61,   179,   156</elem>
      <elem id="2">     1,     2,   162,   161,    61,    62,   180,   179</elem>
      <elem id="3">     2,     3,   163,   162,    62,    63,   181,   180</elem>
      <elem id="4">     3,     4,   164,   163,    63,    64,   182,   181</elem>
      <elem id="5">     4,     5,   165,   164,    64,    65,   183,   182</elem>
      <elem id="6">     5,     6,   166,   165,    65,    66,   184,   183</elem>
      <elem id="7">     6,     7,   167,   166,    66,    67,   185,   184</elem>
      <elem id="8">     7,     8,   168,   167,    67,    68,   186,   185</elem>
      <elem id="9">     8,     9,   169,   168,    68,    69,   187,   186</elem>
      <elem id="10">     9,   846,    29,   169,    69,    10,   106,   187</elem>
      <elem id="11">    59,   161,    44,   224,   156,   179,   119,    45</elem>
      <elem id="12">   161,   162,    43,    44,   179,   180,   118,   119</elem>
      <elem id="13">   162,   163,    42,    43,   180,   181,   117,   118</elem>
      <elem id="14">   163,   164,    41,    42,   181,   182,   116,   117</elem>
      <elem id="15">   164,   165,    40,    41,   182,   183,   115,   116</elem>
      <elem id="16">   165,   166,    39,    40,   183,   184,   114,   115</elem>
      <elem id="17">   166,   167,    38,    39,   184,   185,   113,   114</elem>
      <elem id="18">   167,   168,    37,    38,   185,   186,   112,   113</elem>
      <elem id="19">   168,   169,    36,    37,   186,   187,   111,   112</elem>
      <elem id="20">   169,    29,   225,    36,   187,   106,    30,   111</elem>
<!-- ... 100 like lines cut -->
    </Elements>
    <Elements type="hex8" mat="3" name="Part9">
      <elem id="121">   224,    44,   457,   280,    45,   119,   529,   374</elem>
      <elem id="122">    44,    43,   458,   457,   119,   118,   530,   529</elem>
      <elem id="123">    43,    42,   459,   458,   118,   117,   531,   530</elem>
      <elem id="124">    42,    41,   460,   459,   117,   116,   532,   531</elem>
      <elem id="125">    41,    40,   461,   460,   116,   115,   533,   532</elem>
      <elem id="126">    40,    39,   462,   461,   115,   114,   534,   533</elem>
      <elem id="127">    39,    38,   463,   462,   114,   113,   535,   534</elem>
      <elem id="128">    38,    37,   464,   463,   113,   112,   536,   535</elem>
      <elem id="129">    37,    36,   465,   464,   112,   111,   537,   536</elem>
      <elem id="130">    36,   225,   232,   465,   111,    30,   288,   537</elem>
      <elem id="131">   280,   457,   448,   279,   374,   529,   538,   373</elem>
      <elem id="132">   457,   458,   449,   448,   529,   530,   539,   538</elem>
      <elem id="133">   458,   459,   450,   449,   530,   531,   540,   539</elem>
      <elem id="134">   459,   460,   451,   450,   531,   532,   541,   540</elem>
      <elem id="135">   460,   461,   452,   451,   532,   533,   542,   541</elem>
      <elem id="136">   461,   462,   453,   452,   533,   534,   543,   542</elem>
      <elem id="137">   462,   463,   454,   453,   534,   535,   544,   543</elem>
      <elem id="138">   463,   464,   455,   454,   535,   536,   545,   544</elem>
      <elem id="139">   464,   465,   456,   455,   536,   537,   546,   545</elem>
      <elem id="140">   465,   232,   233,   456,   537,   288,   289,   546</elem>
<!-- ... 460 like lines cut -->
    </Elements>
    <Elements type="hex8" mat="1" name="Part10">
      <elem id="601">   844,   852,  1077,   900,   879,   908,  1149,   994</elem>
      <elem id="602">   852,   853,  1078,  1077,   908,   909,  1150,  1149</elem>
      <elem id="603">   853,   854,  1079,  1078,   909,   910,  1151,  1150</elem>
      <elem id="604">   854,   855,  1080,  1079,   910,   911,  1152,  1151</elem>
      <elem id="605">   855,   856,  1081,  1080,   911,   912,  1153,  1152</elem>
      <elem id="606">   856,   857,  1082,  1081,   912,   913,  1154,  1153</elem>
      <elem id="607">   857,   858,  1083,  1082,   913,   914,  1155,  1154</elem>
      <elem id="608">   858,   859,  1084,  1083,   914,   915,  1156,  1155</elem>
      <elem id="609">   859,   860,  1085,  1084,   915,   916,  1157,  1156</elem>
      <elem id="610">   860,   845,   880,  1085,   916,   861,   953,  1157</elem>
      <elem id="611">   900,  1077,  1068,   899,   994,  1149,  1158,   993</elem>
      <elem id="612">  1077,  1078,  1069,  1068,  1149,  1150,  1159,  1158</elem>
      <elem id="613">  1078,  1079,  1070,  1069,  1150,  1151,  1160,  1159</elem>
      <elem id="614">  1079,  1080,  1071,  1070,  1151,  1152,  1161,  1160</elem>
      <elem id="615">  1080,  1081,  1072,  1071,  1152,  1153,  1162,  1161</elem>
      <elem id="616">  1081,  1082,  1073,  1072,  1153,  1154,  1163,  1162</elem>
      <elem id="617">  1082,  1083,  1074,  1073,  1154,  1155,  1164,  1163</elem>
      <elem id="618">  1083,  1084,  1075,  1074,  1155,  1156,  1165,  1164</elem>
      <elem id="619">  1084,  1085,  1076,  1075,  1156,  1157,  1166,  1165</elem>
      <elem id="620">  1085,   880,   881,  1076,  1157,   953,   954,  1166</elem>
<!-- ... 460 like lines cut -->
    </Elements>
    <NodeSet name="yBar">
      <node id="5"/>
      <node id="19"/>
      <node id="40"/>
      <node id="54"/>
      <node id="65"/>
      <node id="74"/>
      <node id="83"/>
      <node id="92"/>
      <node id="101"/>
      <node id="115"/>
      <node id="124"/>
      <node id="133"/>
      <node id="142"/>
      <node id="151"/>
      <node id="165"/>
      <node id="174"/>
      <node id="183"/>
      <node id="192"/>
      <node id="201"/>
      <node id="210"/>
<!-- ... 113 like lines cut -->
    </NodeSet>
    <NodeSet name="xBar">
      <node id="29"/>
      <node id="35"/>
      <node id="59"/>
      <node id="60"/>
      <node id="106"/>
      <node id="107"/>
      <node id="108"/>
      <node id="109"/>
      <node id="110"/>
      <node id="156"/>
      <node id="157"/>
      <node id="158"/>
      <node id="159"/>
      <node id="160"/>
      <node id="161"/>
      <node id="162"/>
      <node id="163"/>
      <node id="164"/>
      <node id="165"/>
      <node id="166"/>
<!-- ... 57 like lines cut -->
    </NodeSet>
    <NodeSet name="zBar">
      <node id="12"/>
      <node id="26"/>
      <node id="32"/>
      <node id="47"/>
      <node id="79"/>
      <node id="80"/>
      <node id="81"/>
      <node id="82"/>
      <node id="83"/>
      <node id="84"/>
      <node id="85"/>
      <node id="86"/>
      <node id="87"/>
      <node id="108"/>
      <node id="129"/>
      <node id="130"/>
      <node id="131"/>
      <node id="132"/>
      <node id="133"/>
      <node id="134"/>
<!-- ... 189 like lines cut -->
    </NodeSet>
    <NodeSet name="FreeDraining">
      <node id="1"/>
      <node id="2"/>
      <node id="3"/>
      <node id="4"/>
      <node id="5"/>
      <node id="6"/>
      <node id="7"/>
      <node id="8"/>
      <node id="9"/>
      <node id="10"/>
      <node id="11"/>
      <node id="12"/>
      <node id="13"/>
      <node id="14"/>
      <node id="15"/>
      <node id="16"/>
      <node id="17"/>
      <node id="18"/>
      <node id="19"/>
      <node id="20"/>
<!-- ... 678 like lines cut -->
    </NodeSet>
    <NodeSet name="AllNodes">
      <node id="1"/>
      <node id="2"/>
      <node id="3"/>
      <node id="4"/>
      <node id="5"/>
      <node id="6"/>
      <node id="7"/>
      <node id="8"/>
      <node id="9"/>
      <node id="10"/>
      <node id="11"/>
      <node id="12"/>
      <node id="13"/>
      <node id="14"/>
      <node id="15"/>
      <node id="16"/>
      <node id="17"/>
      <node id="18"/>
      <node id="19"/>
      <node id="20"/>
<!-- ... 1443 like lines cut -->
    </NodeSet>
    <ElementSet name="CoreElem">
      <elem id="601"/>
      <elem id="602"/>
      <elem id="603"/>
      <elem id="604"/>
      <elem id="605"/>
      <elem id="606"/>
      <elem id="607"/>
      <elem id="608"/>
      <elem id="609"/>
      <elem id="610"/>
      <elem id="611"/>
      <elem id="612"/>
      <elem id="613"/>
      <elem id="614"/>
      <elem id="615"/>
      <elem id="616"/>
      <elem id="617"/>
      <elem id="618"/>
      <elem id="619"/>
      <elem id="620"/>
<!-- ... 460 like lines cut -->
    </ElementSet>
    <ElementSet name="InterfaceElem">
      <elem id="1"/>
      <elem id="2"/>
      <elem id="3"/>
      <elem id="4"/>
      <elem id="5"/>
      <elem id="6"/>
      <elem id="7"/>
      <elem id="8"/>
      <elem id="9"/>
      <elem id="10"/>
      <elem id="11"/>
      <elem id="12"/>
      <elem id="13"/>
      <elem id="14"/>
      <elem id="15"/>
      <elem id="16"/>
      <elem id="17"/>
      <elem id="18"/>
      <elem id="19"/>
      <elem id="20"/>
<!-- ... 100 like lines cut -->
    </ElementSet>
    <ElementSet name="FieldElem">
      <elem id="121"/>
      <elem id="122"/>
      <elem id="123"/>
      <elem id="124"/>
      <elem id="125"/>
      <elem id="126"/>
      <elem id="127"/>
      <elem id="128"/>
      <elem id="129"/>
      <elem id="130"/>
      <elem id="131"/>
      <elem id="132"/>
      <elem id="133"/>
      <elem id="134"/>
      <elem id="135"/>
      <elem id="136"/>
      <elem id="137"/>
      <elem id="138"/>
      <elem id="139"/>
      <elem id="140"/>
<!-- ... 460 like lines cut -->
    </ElementSet>
  </Geometry>
  <Boundary>
    <fix bc="x" node_set="yBar"/>
    <fix bc="y" node_set="xBar"/>
    <fix bc="z" node_set="zBar"/>
    <fix bc="p" node_set="FreeDraining"/>
  </Boundary>
  <LoadData>
    <loadcurve id="1">
      <point>50,1</point>
      <point>51,1</point>
      <point>52,2</point>
      <point>53,12</point>
      <point>54,5</point>
      <point>55,11</point>
      <point>56,10</point>
      <point>57,5</point>
      <point>58,9</point>
      <point>59,13</point>
      <point>60,12</point>
      <point>61,15</point>
      <point>62,12</point>
      <point>63,13</point>
      <point>64,11</point>
      <point>65,4</point>
      <point>66,9</point>
      <point>67,13</point>
      <point>68,10</point>
      <point>69,8</point>
<!-- ... 131 like lines cut -->
    </loadcurve>    
  </LoadData>
  <Output>
    <plotfile type="febio">
      <var type="displacement"/>
      <var type="stress"/>
      <var type="angio stress"/>
      <var type="angio ECM density"/>
      <var type="matrix stress"/>
      <var type="vessel stress"/>
      <var type="density"/>
      <var type="fluid pressure"/>
      <var type="fluid flux"/>
      <var type="angio SPD"/>
      <var type="vessel weight"/>
      <var type="vascular density"/>
    </plotfile>
  </Output>
</febio_spec>
