<?xml version="1.0" encoding="ISO-8859-1"?>
<febio_spec version="2.5">
  <Module type="multiphasic" />
  <Control>
    <symmetric_stiffness>0</symmetric_stiffness>
    <time_steps>24</time_steps>
    <step_size>0.5</step_size>
    <time_stepper>
      <dtmin>1e-4</dtmin>
      <dtmax>1</dtmax>
      <max_retries>10</max_retries>
      <opt_iter>10</opt_iter>
    </time_stepper>
    <max_refs>15</max_refs>
    <max_ups>0</max_ups>
    <dtol>0.01</dtol>
    <ptol>0.1</ptol>
    <etol>0.1</etol>
    <lstol>0.9</lstol>
    <min_residual>1e-020</min_residual>
    <analysis type="static" />
  </Control>
  <Globals>
    <Constants>
      <T>298</T>
      <R>8.314e-15</R>
      <Fc>96485e-15</Fc>
      <seed>15000</seed>
      <min_scale_factor>0.01</min_scale_factor>
      <bounds_tolerance>1e-3</bounds_tolerance>
      <growth_substeps>3</growth_substeps>
      <min_angio_dt>0.1</min_angio_dt>
      <max_angio_dt>0.5</max_angio_dt>
      <bounce>0</bounce>
    </Constants>
  </Globals>
  <Material>
    <material id="1" name="LowFA" type="multiphasic">
      <phi0>0.00567</phi0>
      <permeability type="perm-const-iso">
        <perm>3.588e4</perm>
      </permeability>
      <osmotic_coefficient type="osm-coef-const">
        <osmcoef>1</osmcoef>
      </osmotic_coefficient>
      <fixed_charge_density>0</fixed_charge_density>

      <solid type="angio_mat">
        <mix_method type="LinRot" />
        <angio_stress_policy type="sigmoid_dens_angio_stress_policy">
          <x0>9</x0>
          <b>0.142857</b>
        </angio_stress_policy>

        <im_manager type="im_manager">
          <initial_modifier type="efd_initializer">
            <spd>1.3,1,0.5,0,0,0</spd>
          </initial_modifier>
          <initial_modifier type="density_initializer">
            <initial_density>3.0</initial_density>
          </initial_modifier>
        </im_manager>

        <velocity_manager type="segment_growth_velocity_manager">
          <velocity_modifier type="segment_velocity_modifier">
            <segment_velocity_over_time>1</segment_velocity_over_time>
          </velocity_modifier>
          <velocity_modifier type="segment_velocity_density_fa_scale_modifier">
            <interpolation_prop type="per_element_vi" />
          </velocity_modifier>
          <velocity_modifier type="sigmoid_adjusted_segment_velocity">
            <a>100</a>
            <c>5</c>
          </velocity_modifier>
        </velocity_manager>

        <proto_psc_manager type="proto_previous_segment_contribution_manager">
          <proto_psc_modifier type="proto_previous_segment_psc" />
        </proto_psc_manager>
        <psc_manager type="previous_segment_contribution_manager">
          <psc_modifier type="previous_segment_psc" />
        </psc_manager>

        <proto_pdd_manager type="proto_position_dependent_direction_manager">
          <proto_pdd_modifier type="proto_fractional_anisotropy_pdd">
            <proto_efd>1.3,1,1,0,0,0</proto_efd>
          </proto_pdd_modifier>
        </proto_pdd_manager>
        <pdd_manager type="position_dependent_direction_manager">
          <pdd_modifier type="fractional_anisotropy_pdd" />
        </pdd_manager>

        <proto_cm_manager type="proto_contribution_mix_manager">
          <proto_psc_modifier type="proto_psc_pdd_contribution_mix">
            <proto_psc_weight>.3</proto_psc_weight>
          </proto_psc_modifier>
        </proto_cm_manager>
        <cm_manager type="contribution_mix_manager">
          <psc_modifier type="density_FA_contribution_mix" />
        </cm_manager>

        <branch_policy type="delayed_branching_policy_efd">
          <interpolation_prop type="per_element_vi"></interpolation_prop>
          <azimuth_angle type="azimuth_angle_probability_distribution">
            <angle type="uniform_distribution">
              <a>0</a>
              <b>6.2831</b>
              <time_clamped>0</time_clamped>
            </angle>
          </azimuth_angle>
          <zenith_angle type="zenith_angle_probability_distribution">
            <angle type="uniform_distribution">
              <a>0.5</a>
              <b>1.2</b>
              <time_clamped>0</time_clamped>
            </angle>
          </zenith_angle>
          <length_to_branch type="normal_distribution">
            <mean>250</mean>
            <stddev>30</stddev>
          </length_to_branch>
          <time_to_emerge type="fixed_distribution">
            <value>0.5</value>
          </time_to_emerge>
        </branch_policy>

        <matrix type="viscoelastic">
          <t1>1.25e-5</t1>
          <g0>0.0</g0>
          <g1>1.0</g1>
          <elastic type="solid mixture">
            <solid type="neo-Hookean">
              <E>2.38e5</E>
              <v>0.</v>
            </solid>
            <solid type="continuous fiber distribution">
              <fibers type="fiber-exp-pow">
                <alpha>0</alpha>
                <beta>2.5</beta>
                <ksi>1.288e8</ksi>
              </fibers>
              <distribution type="ellipsoidal">
                <spa>1.3,1.0,0.5</spa>
              </distribution>
              <scheme type="fibers-3d-gkt">
                <nph>7</nph>
                <nth>11</nth>
              </scheme>
            </solid>
          </elastic>
        </matrix>

        <common_properties type="angio_properties">
          <vessel type="viscoelastic">
            <t1>1.25e-5</t1>
            <g0>0.0</g0>
            <g1>1.0</g1>
            <elastic type="neo-Hookean">
              <E>2.38e6</E>
              <v>0.0</v>
            </elastic>
          </vessel>
          <fragment_seeder type="by_element_fragment_seeder_bidirectional">
            <number_fragments>52</number_fragments>
            <initial_segment_length type="prescribed_distribution">
              <distribution lc="1" />
            </initial_segment_length>
            <proto_mat_cross>0</proto_mat_cross>
          </fragment_seeder>
        </common_properties>
      </solid>
    </material>
    <material id="2" name="ModerateFA" type="multiphasic">
      <phi0>0.00567</phi0>
      <permeability type="perm-const-iso">
        <perm>3.588e4</perm>
      </permeability>
      <osmotic_coefficient type="osm-coef-const">
        <osmcoef>1</osmcoef>
      </osmotic_coefficient>
      <fixed_charge_density>0</fixed_charge_density>

      <solid type="angio_mat">
        <mix_method type="LinRot" />
        <angio_stress_policy type="sigmoid_dens_angio_stress_policy">
          <x0>9</x0>
          <b>0.142857</b>
        </angio_stress_policy>

        <im_manager type="im_manager">
          <initial_modifier type="efd_initializer">
            <spd>1.3,1,0.5,0,0,0</spd>
          </initial_modifier>
          <initial_modifier type="density_initializer">
            <initial_density>3.0</initial_density>
          </initial_modifier>
        </im_manager>

        <velocity_manager type="segment_growth_velocity_manager">
          <velocity_modifier type="segment_velocity_modifier">
            <segment_velocity_over_time>1</segment_velocity_over_time>
          </velocity_modifier>
          <velocity_modifier type="segment_velocity_density_fa_scale_modifier">
            <interpolation_prop type="per_element_vi" />
          </velocity_modifier>
          <velocity_modifier type="sigmoid_adjusted_segment_velocity">
            <a>100</a>
            <c>5</c>
          </velocity_modifier>
        </velocity_manager>

        <proto_psc_manager type="proto_previous_segment_contribution_manager">
          <proto_psc_modifier type="proto_previous_segment_psc" />
        </proto_psc_manager>
        <psc_manager type="previous_segment_contribution_manager">
          <psc_modifier type="previous_segment_psc" />
        </psc_manager>

        <proto_pdd_manager type="proto_position_dependent_direction_manager">
          <proto_pdd_modifier type="proto_fractional_anisotropy_pdd">
            <proto_efd>1.3,1,1,0,0,0</proto_efd>
          </proto_pdd_modifier>
        </proto_pdd_manager>
        <pdd_manager type="position_dependent_direction_manager">
          <pdd_modifier type="fractional_anisotropy_pdd" />
        </pdd_manager>

        <proto_cm_manager type="proto_contribution_mix_manager">
          <proto_psc_modifier type="proto_psc_pdd_contribution_mix">
            <proto_psc_weight>.3</proto_psc_weight>
          </proto_psc_modifier>
        </proto_cm_manager>
        <cm_manager type="contribution_mix_manager">
          <psc_modifier type="density_FA_contribution_mix" />
        </cm_manager>

        <branch_policy type="delayed_branching_policy_efd">
          <interpolation_prop type="per_element_vi"></interpolation_prop>
          <azimuth_angle type="azimuth_angle_probability_distribution">
            <angle type="uniform_distribution">
              <a>0</a>
              <b>6.2831</b>
              <time_clamped>0</time_clamped>
            </angle>
          </azimuth_angle>
          <zenith_angle type="zenith_angle_probability_distribution">
            <angle type="uniform_distribution">
              <a>0.5</a>
              <b>1.2</b>
              <time_clamped>0</time_clamped>
            </angle>
          </zenith_angle>
          <length_to_branch type="normal_distribution">
            <mean>250</mean>
            <stddev>30</stddev>
          </length_to_branch>
          <time_to_emerge type="fixed_distribution">
            <value>0.5</value>
          </time_to_emerge>
        </branch_policy>

        <matrix type="viscoelastic">
          <t1>1.25e-5</t1>
          <g0>0.0</g0>
          <g1>1.0</g1>
          <elastic type="solid mixture">
            <solid type="neo-Hookean">
              <E>2.38e5</E>
              <v>0.</v>
            </solid>
            <solid type="continuous fiber distribution">
              <fibers type="fiber-exp-pow">
                <alpha>0</alpha>
                <beta>2.5</beta>
                <ksi>1.288e8</ksi>
              </fibers>
              <distribution type="ellipsoidal">
                <spa>1.3,1.0,0.5</spa>
              </distribution>
              <scheme type="fibers-3d-gkt">
                <nph>7</nph>
                <nth>11</nth>
              </scheme>
            </solid>
          </elastic>
        </matrix>

        <common_properties type="angio_properties">
          <vessel type="viscoelastic">
            <t1>1.25e-5</t1>
            <g0>0.0</g0>
            <g1>1.0</g1>
            <elastic type="neo-Hookean">
              <E>2.38e6</E>
              <v>0.0</v>
            </elastic>
          </vessel>
          <fragment_seeder type="by_element_fragment_seeder_bidirectional">
            <number_fragments>0</number_fragments>
            <initial_segment_length type="prescribed_distribution">
              <distribution lc="1" />
            </initial_segment_length>
            <proto_mat_cross>0</proto_mat_cross>
          </fragment_seeder>
        </common_properties>
      </solid>
    </material>
    <material id="3" name="HighFA" type="multiphasic">
      <phi0>0.00567</phi0>
      <permeability type="perm-const-iso">
        <perm>3.588e4</perm>
      </permeability>
      <osmotic_coefficient type="osm-coef-const">
        <osmcoef>1</osmcoef>
      </osmotic_coefficient>
      <fixed_charge_density>0</fixed_charge_density>

      <solid type="angio_mat">
        <mix_method type="LinRot" />
        <angio_stress_policy type="sigmoid_dens_angio_stress_policy">
          <x0>9</x0>
          <b>0.142857</b>
        </angio_stress_policy>

        <im_manager type="im_manager">
          <initial_modifier type="efd_initializer">
            <spd>1.3,1,0.5,0,0,0</spd>
          </initial_modifier>
          <initial_modifier type="density_initializer">
            <initial_density>3.0</initial_density>
          </initial_modifier>
        </im_manager>

        <velocity_manager type="segment_growth_velocity_manager">
          <velocity_modifier type="segment_velocity_modifier">
            <segment_velocity_over_time>1</segment_velocity_over_time>
          </velocity_modifier>
          <velocity_modifier type="segment_velocity_density_fa_scale_modifier">
            <interpolation_prop type="per_element_vi" />
          </velocity_modifier>
          <velocity_modifier type="sigmoid_adjusted_segment_velocity">
            <a>100</a>
            <c>5</c>
          </velocity_modifier>
        </velocity_manager>

        <proto_psc_manager type="proto_previous_segment_contribution_manager">
          <proto_psc_modifier type="proto_previous_segment_psc" />
        </proto_psc_manager>
        <psc_manager type="previous_segment_contribution_manager">
          <psc_modifier type="previous_segment_psc" />
        </psc_manager>

        <proto_pdd_manager type="proto_position_dependent_direction_manager">
          <proto_pdd_modifier type="proto_fractional_anisotropy_pdd">
            <proto_efd>1.3,1,1,0,0,0</proto_efd>
          </proto_pdd_modifier>
        </proto_pdd_manager>
        <pdd_manager type="position_dependent_direction_manager">
          <pdd_modifier type="fractional_anisotropy_pdd" />
        </pdd_manager>

        <proto_cm_manager type="proto_contribution_mix_manager">
          <proto_psc_modifier type="proto_psc_pdd_contribution_mix">
            <proto_psc_weight>.3</proto_psc_weight>
          </proto_psc_modifier>
        </proto_cm_manager>
        <cm_manager type="contribution_mix_manager">
          <psc_modifier type="density_FA_contribution_mix" />
        </cm_manager>

        <branch_policy type="delayed_branching_policy_efd">
          <interpolation_prop type="per_element_vi"></interpolation_prop>
          <azimuth_angle type="azimuth_angle_probability_distribution">
            <angle type="uniform_distribution">
              <a>0</a>
              <b>6.2831</b>
              <time_clamped>0</time_clamped>
            </angle>
          </azimuth_angle>
          <zenith_angle type="zenith_angle_probability_distribution">
            <angle type="uniform_distribution">
              <a>0.5</a>
              <b>1.2</b>
              <time_clamped>0</time_clamped>
            </angle>
          </zenith_angle>
          <length_to_branch type="normal_distribution">
            <mean>250</mean>
            <stddev>30</stddev>
          </length_to_branch>
          <time_to_emerge type="fixed_distribution">
            <value>0.5</value>
          </time_to_emerge>
        </branch_policy>

        <matrix type="viscoelastic">
          <t1>1.25e-5</t1>
          <g0>0.0</g0>
          <g1>1.0</g1>
          <elastic type="solid mixture">
            <solid type="neo-Hookean">
              <E>2.38e5</E>
              <v>0.</v>
            </solid>
            <solid type="continuous fiber distribution">
              <fibers type="fiber-exp-pow">
                <alpha>0</alpha>
                <beta>2.5</beta>
                <ksi>1.288e8</ksi>
              </fibers>
              <distribution type="ellipsoidal">
                <spa>1.3,1.0,0.5</spa>
              </distribution>
              <scheme type="fibers-3d-gkt">
                <nph>7</nph>
                <nth>11</nth>
              </scheme>
            </solid>
          </elastic>
        </matrix>

        <common_properties type="angio_properties">
          <vessel type="viscoelastic">
            <t1>1.25e-5</t1>
            <g0>0.0</g0>
            <g1>1.0</g1>
            <elastic type="neo-Hookean">
              <E>2.38e6</E>
              <v>0.0</v>
            </elastic>
          </vessel>
          <fragment_seeder type="by_element_fragment_seeder_bidirectional">
            <number_fragments>0</number_fragments>
            <initial_segment_length type="prescribed_distribution">
              <distribution lc="1" />
            </initial_segment_length>
            <proto_mat_cross>0</proto_mat_cross>
          </fragment_seeder>
        </common_properties>
      </solid>
    </material>
  </Material>
  <Geometry>
    <Nodes name="MergedObject1">
      <node id="1"> -4.0000000e+02, -1.0000000e+03, -2.5000000e+02</node>
      <node id="2"> -3.0000000e+02, -1.0000000e+03, -2.5000000e+02</node>
      <node id="3"> -2.0000000e+02, -1.0000000e+03, -2.5000000e+02</node>
      <node id="4"> -1.0000000e+02, -1.0000000e+03, -2.5000000e+02</node>
      <node id="5"> 0.0000000e+00, -1.0000000e+03, -2.5000000e+02</node>
      <node id="6"> 1.0000000e+02, -1.0000000e+03, -2.5000000e+02</node>
      <node id="7"> 2.0000000e+02, -1.0000000e+03, -2.5000000e+02</node>
      <node id="8"> 3.0000000e+02, -1.0000000e+03, -2.5000000e+02</node>
      <node id="9"> 4.0000000e+02, -1.0000000e+03, -2.5000000e+02</node>
      <node id="10"> 5.0000000e+02, -1.0000000e+03, -1.5000000e+02</node>
      <node id="11"> 5.0000000e+02, -1.0000000e+03, -5.0000000e+01</node>
      <node id="12"> 5.0000000e+02, -1.0000000e+03, 5.0000000e+01</node>
      <node id="13"> 5.0000000e+02, -1.0000000e+03, 1.5000000e+02</node>
      <node id="14"> 4.0000000e+02, -1.0000000e+03, 2.5000000e+02</node>
      <node id="15"> 3.0000000e+02, -1.0000000e+03, 2.5000000e+02</node>
      <node id="16"> 2.0000000e+02, -1.0000000e+03, 2.5000000e+02</node>
      <node id="17"> 1.0000000e+02, -1.0000000e+03, 2.5000000e+02</node>
      <node id="18"> 0.0000000e+00, -1.0000000e+03, 2.5000000e+02</node>
      <node id="19"> -1.0000000e+02, -1.0000000e+03, 2.5000000e+02</node>
      <node id="20"> -2.0000000e+02, -1.0000000e+03, 2.5000000e+02</node>
<!-- ... 2374 like lines cut -->
    </Nodes>
    <Elements type="hex8" mat="2" name="Part1">
      <elem id="1"> 1380, 1, 515, 109, 26, 129, 695, 295</elem>
      <elem id="2"> 1, 2, 516, 515, 129, 130, 696, 695</elem>
      <elem id="3"> 2, 3, 517, 516, 130, 131, 697, 696</elem>
      <elem id="4"> 3, 4, 518, 517, 131, 132, 698, 697</elem>
      <elem id="5"> 4, 5, 519, 518, 132, 133, 699, 698</elem>
      <elem id="6"> 5, 6, 520, 519, 133, 134, 700, 699</elem>
      <elem id="7"> 6, 7, 521, 520, 134, 135, 701, 700</elem>
      <elem id="8"> 7, 8, 522, 521, 135, 136, 702, 701</elem>
      <elem id="9"> 8, 9, 523, 522, 136, 137, 703, 702</elem>
      <elem id="10"> 9, 1887, 27, 523, 137, 10, 165, 703</elem>
      <elem id="11"> 109, 515, 506, 108, 295, 695, 704, 294</elem>
      <elem id="12"> 515, 516, 507, 506, 695, 696, 705, 704</elem>
      <elem id="13"> 516, 517, 508, 507, 696, 697, 706, 705</elem>
      <elem id="14"> 517, 518, 509, 508, 697, 698, 707, 706</elem>
      <elem id="15"> 518, 519, 510, 509, 698, 699, 708, 707</elem>
      <elem id="16"> 519, 520, 511, 510, 699, 700, 709, 708</elem>
      <elem id="17"> 520, 521, 512, 511, 700, 701, 710, 709</elem>
      <elem id="18"> 521, 522, 513, 512, 701, 702, 711, 710</elem>
      <elem id="19"> 522, 523, 514, 513, 702, 703, 712, 711</elem>
      <elem id="20"> 523, 27, 28, 514, 703, 165, 166, 712</elem>
<!-- ... 980 like lines cut -->
    </Elements>
    <Elements type="hex8" mat="1" name="Part2">
      <elem id="1001"> 1379, 1387, 1599, 1425, 1396, 1445, 1659, 1487</elem>
      <elem id="1002"> 1387, 1388, 1600, 1599, 1445, 1446, 1660, 1659</elem>
      <elem id="1003"> 1388, 1389, 1601, 1600, 1446, 1447, 1661, 1660</elem>
      <elem id="1004"> 1389, 1380, 109, 1601, 1447, 26, 295, 1661</elem>
      <elem id="1005"> 1425, 1599, 1596, 1424, 1487, 1659, 1662, 1486</elem>
      <elem id="1006"> 1599, 1600, 1597, 1596, 1659, 1660, 1663, 1662</elem>
      <elem id="1007"> 1600, 1601, 1598, 1597, 1660, 1661, 1664, 1663</elem>
      <elem id="1008"> 1601, 109, 108, 1598, 1661, 295, 294, 1664</elem>
      <elem id="1009"> 1424, 1596, 1593, 1423, 1486, 1662, 1665, 1485</elem>
      <elem id="1010"> 1596, 1597, 1594, 1593, 1662, 1663, 1666, 1665</elem>
      <elem id="1011"> 1597, 1598, 1595, 1594, 1663, 1664, 1667, 1666</elem>
      <elem id="1012"> 1598, 108, 107, 1595, 1664, 294, 293, 1667</elem>
      <elem id="1013"> 1423, 1593, 1590, 1422, 1485, 1665, 1668, 1484</elem>
      <elem id="1014"> 1593, 1594, 1591, 1590, 1665, 1666, 1669, 1668</elem>
      <elem id="1015"> 1594, 1595, 1592, 1591, 1666, 1667, 1670, 1669</elem>
      <elem id="1016"> 1595, 107, 106, 1592, 1667, 293, 292, 1670</elem>
      <elem id="1017"> 1422, 1590, 1587, 1421, 1484, 1668, 1671, 1483</elem>
      <elem id="1018"> 1590, 1591, 1588, 1587, 1668, 1669, 1672, 1671</elem>
      <elem id="1019"> 1591, 1592, 1589, 1588, 1669, 1670, 1673, 1672</elem>
      <elem id="1020"> 1592, 106, 105, 1589, 1670, 292, 291, 1673</elem>
<!-- ... 380 like lines cut -->
    </Elements>
    <Elements type="hex8" mat="3" name="Part4">
      <elem id="1401"> 1887, 1895, 2107, 27, 10, 1953, 2167, 165</elem>
      <elem id="1402"> 1895, 1896, 2108, 2107, 1953, 1954, 2168, 2167</elem>
      <elem id="1403"> 1896, 1897, 2109, 2108, 1954, 1955, 2169, 2168</elem>
      <elem id="1404"> 1897, 1888, 1905, 2109, 1955, 1898, 1965, 2169</elem>
      <elem id="1405"> 27, 2107, 2104, 28, 165, 2167, 2170, 166</elem>
      <elem id="1406"> 2107, 2108, 2105, 2104, 2167, 2168, 2171, 2170</elem>
      <elem id="1407"> 2108, 2109, 2106, 2105, 2168, 2169, 2172, 2171</elem>
      <elem id="1408"> 2109, 1905, 1906, 2106, 2169, 1965, 1966, 2172</elem>
      <elem id="1409"> 28, 2104, 2101, 29, 166, 2170, 2173, 167</elem>
      <elem id="1410"> 2104, 2105, 2102, 2101, 2170, 2171, 2174, 2173</elem>
      <elem id="1411"> 2105, 2106, 2103, 2102, 2171, 2172, 2175, 2174</elem>
      <elem id="1412"> 2106, 1906, 1907, 2103, 2172, 1966, 1967, 2175</elem>
      <elem id="1413"> 29, 2101, 2098, 30, 167, 2173, 2176, 168</elem>
      <elem id="1414"> 2101, 2102, 2099, 2098, 2173, 2174, 2177, 2176</elem>
      <elem id="1415"> 2102, 2103, 2100, 2099, 2174, 2175, 2178, 2177</elem>
      <elem id="1416"> 2103, 1907, 1908, 2100, 2175, 1967, 1968, 2178</elem>
      <elem id="1417"> 30, 2098, 2095, 31, 168, 2176, 2179, 169</elem>
      <elem id="1418"> 2098, 2099, 2096, 2095, 2176, 2177, 2180, 2179</elem>
      <elem id="1419"> 2099, 2100, 2097, 2096, 2177, 2178, 2181, 2180</elem>
      <elem id="1420"> 2100, 1908, 1909, 2097, 2178, 1968, 1969, 2181</elem>
<!-- ... 380 like lines cut -->
    </Elements>
    <NodeSet name="yAxis">
      <node id="5" />
      <node id="18" />
      <node id="73" />
      <node id="86" />
      <node id="133" />
      <node id="142" />
      <node id="151" />
      <node id="160" />
      <node id="245" />
      <node id="254" />
      <node id="263" />
      <node id="272" />
      <node id="357" />
      <node id="366" />
      <node id="375" />
      <node id="384" />
      <node id="393" />
      <node id="402" />
      <node id="411" />
      <node id="420" />
<!-- ... 106 like lines cut -->
    </NodeSet>
    <NodeSet name="xAxis">
      <node id="36" />
      <node id="59" />
      <node id="100" />
      <node id="119" />
      <node id="174" />
      <node id="193" />
      <node id="212" />
      <node id="231" />
      <node id="286" />
      <node id="305" />
      <node id="324" />
      <node id="343" />
      <node id="434" />
      <node id="435" />
      <node id="436" />
      <node id="437" />
      <node id="438" />
      <node id="439" />
      <node id="440" />
      <node id="441" />
<!-- ... 94 like lines cut -->
    </NodeSet>
    <NodeSet name="zAxis">
      <node id="1" />
      <node id="2" />
      <node id="3" />
      <node id="4" />
      <node id="5" />
      <node id="6" />
      <node id="7" />
      <node id="8" />
      <node id="9" />
      <node id="27" />
      <node id="28" />
      <node id="29" />
      <node id="30" />
      <node id="31" />
      <node id="32" />
      <node id="33" />
      <node id="34" />
      <node id="35" />
      <node id="36" />
      <node id="37" />
<!-- ... 379 like lines cut -->
    </NodeSet>
    <NodeSet name="FreeDraining">
      <node id="1" />
      <node id="2" />
      <node id="3" />
      <node id="4" />
      <node id="5" />
      <node id="6" />
      <node id="7" />
      <node id="8" />
      <node id="9" />
      <node id="10" />
      <node id="11" />
      <node id="12" />
      <node id="13" />
      <node id="14" />
      <node id="15" />
      <node id="16" />
      <node id="17" />
      <node id="18" />
      <node id="19" />
      <node id="20" />
<!-- ... 1082 like lines cut -->
    </NodeSet>
    <NodeSet name="FreeDrainingNodes">
      <node id="1" />
      <node id="2" />
      <node id="3" />
      <node id="4" />
      <node id="5" />
      <node id="6" />
      <node id="7" />
      <node id="8" />
      <node id="9" />
      <node id="10" />
      <node id="11" />
      <node id="12" />
      <node id="13" />
      <node id="14" />
      <node id="15" />
      <node id="16" />
      <node id="17" />
      <node id="18" />
      <node id="19" />
      <node id="20" />
<!-- ... 1082 like lines cut -->
    </NodeSet>
    <ElementSet name="AllElem">
      <elem id="1" />
      <elem id="2" />
      <elem id="3" />
      <elem id="4" />
      <elem id="5" />
      <elem id="6" />
      <elem id="7" />
      <elem id="8" />
      <elem id="9" />
      <elem id="10" />
      <elem id="11" />
      <elem id="12" />
      <elem id="13" />
      <elem id="14" />
      <elem id="15" />
      <elem id="16" />
      <elem id="17" />
      <elem id="18" />
      <elem id="19" />
      <elem id="20" />
<!-- ... 1780 like lines cut -->
    </ElementSet>
  </Geometry>
  <Boundary>
    <fix bc="x" node_set="yAxis" />
    <fix bc="y" node_set="xAxis" />
    <fix bc="z" node_set="zAxis" />
    <fix bc="p" node_set="FreeDraining" />
  </Boundary>
  <LoadData>
    <loadcurve id="1" type="linear">
      <point>30,0.00650722932078009</point>
      <point>31,0.00701743549924117</point>
      <point>32,0.00755291201065641</point>
      <point>33,0.00811127464270498</point>
      <point>34,0.00868909841372613</point>
      <point>35,0.00928179708922169</point>
      <point>36,0.0098835424160014</point>
      <point>37,0.0104872447819563</point>
      <point>38,0.0110846175530915</point>
      <point>39,0.0116663442472312</point>
      <point>40,0.0122223599405057</point>
      <point>41,0.0127422456104842</point>
      <point>42,0.0132157175164474</point>
      <point>43,0.0136331757493896</point>
      <point>44,0.0139862605788319</point>
      <point>45,0.0142683564149464</point>
      <point>46,0.0144749843977533</point>
      <point>47,0.0146040368673086</point>
      <point>48,0.0146558283453383</point>
      <point>49,0.0146329636445019</point>
<!-- ... 751 like lines cut -->
    </loadcurve>
  </LoadData>
  <Output>
    <plotfile type="febio">
      <var type="displacement" />
      <var type="stress" />
      <var type="angio stress" />
      <var type="angio ECM density" />
      <var type="matrix stress" />
      <var type="vessel stress" />
      <var type="density" />
      <var type="fluid pressure" />
      <var type="fluid flux" />
      <var type="angio SPD" />
    </plotfile>
  </Output>
</febio_spec>